Distrib/IEEETestCases/NEVTestCase/LineConstantsCode.DSS
!--- OpenDSS Linecodes file generated from Show LINECONSTANTS command
!--- Frequency = 60 Hz, Earth resistivity = 100 ohm-m

New Linecode.quadcircuit nphases=17  Units=km
~ Rmatrix=[0.190558  |0.0580748  0.190558  |0.0580746  0.0580748  0.190558  |0.0580187  0.0580186  0.0580184  0.190446  |0.0580186  0.0580187  0.0580186  0.0579625  0.190446  |0.0580184  0.0580186  0.0580187  0.0579623  0.0579624  0.190446  |0.0579625  0.0579625  0.0579623  0.0579065  0.0579064  0.0579062  0.190334  |0.0579625  0.0579625  0.0579624  0.0579064  0.0579065  0.0579064  0.0578505  0.190334  |0.0579623  0.0579624  0.0579625  0.0579062  0.0579064  0.0579065  0.0578502  0.0578504  0.190334  |0.0579065  0.0579064  0.0579062  0.0578505  0.0578505  0.0578502  0.0577946  0.0577946  0.0577944  0.190222  |0.0578924  0.0578925  0.0578924  0.0578365  0.0578365  0.0578365  0.0577806  0.0577807  0.0577806  0.0577249  0.190194  |0.0579062  0.0579064  0.0579065  0.0578502  0.0578504  0.0578505  0.0577944  0.0577945  0.0577946  0.0577386  0.0577249  0.190222  |0.0581311  0.0581312  0.0581311  0.0580748  0.0580749  0.0580748  0.0580186  0.0580187  0.0580186  0.0579625  0.0579485  0.0579624  0.190671  |0.0581875  0.0581876  0.0581875  0.0581311  0.0581312  0.0581311  0.0580748  0.0580749  0.0580748  0.0580186  0.0580046  0.0580186  0.0582441  1.06361  |0.0582157  0.0582158  0.0582157  0.0581593  0.0581594  0.0581593  0.058103  0.058103  0.0581029  0.0580467  0.0580327  0.0580467  0.0582723  0.0583289  1.06366  |0.058244  0.0582441  0.058244  0.0581875  0.0581876  0.0581875  0.0581311  0.0581312  0.0581311  0.0580748  0.0580608  0.0580748  0.0583006  0.0583573  0.0583856  1.06372  |0.0582723  0.0582723  0.0582722  0.0582157  0.0582158  0.0582157  0.0581593  0.0581594  0.0581593  0.058103  0.0580889  0.0581029  0.0583289  0.0583856  0.058414  0.0584424  1.06378  ]
~ Xmatrix=[0.868584  |0.515614  0.868584  |0.446527  0.485043  0.868584  |0.515672  0.489541  0.44099  0.8687  |0.489541  0.515672  0.471238  0.51573  0.8687  |0.44099  0.471238  0.515672  0.446643  0.485159  0.8687  |0.463468  0.455056  0.427994  0.515788  0.489657  0.441106  0.868816  |0.455056  0.463468  0.446643  0.489657  0.515788  0.471354  0.515846  0.868816  |0.427994  0.446643  0.463468  0.441106  0.471354  0.515788  0.446759  0.485275  0.868816  |0.432955  0.428983  0.413074  0.463584  0.455172  0.42811  0.515904  0.489773  0.441222  0.868932  |0.421733  0.426712  0.421733  0.444577  0.454255  0.444577  0.472963  0.497615  0.472963  0.497673  0.868961  |0.413074  0.424542  0.432955  0.42811  0.446759  0.463584  0.441222  0.47147  0.515904  0.446875  0.497673  0.868932  |0.483789  0.514717  0.476439  0.452583  0.463141  0.449199  0.42767  0.432745  0.425887  0.408212  0.406629  0.407139  0.868468  |0.452467  0.463025  0.449083  0.427554  0.432629  0.425771  0.408096  0.411037  0.407023  0.39238  0.390646  0.391671  0.51544  1.00385  |0.439146  0.446247  0.436736  0.417206  0.421002  0.415842  0.399795  0.402139  0.398932  0.385495  0.38376  0.384903  0.48484  0.567615  1.00379  |0.427438  0.432513  0.425655  0.40798  0.410921  0.406907  0.392264  0.394173  0.391555  0.379159  0.377446  0.378657  0.46312  0.515324  0.567557  1.00373  |0.41709  0.420886  0.415726  0.399679  0.402023  0.398816  0.385379  0.386964  0.384787  0.373293  0.371615  0.372863  0.446266  0.484724  0.515266  0.567499  1.00367  ]
~ Cmatrix=[10.55  |-1.73851  11.0981  |-0.318506  -1.06732  10.2557  |-1.92225  -0.882472  -0.218354  10.9123  |-0.884209  -1.59307  -0.676542  -1.55055  11.2117  |-0.220645  -0.667496  -2.13759  -0.240202  -0.938222  10.6575  |-0.615536  -0.314266  -0.141457  -1.85031  -0.852009  -0.2136  10.8388  |-0.32002  -0.380179  -0.306454  -0.863642  -1.58823  -0.654799  -1.64563  11.0773  |-0.140042  -0.295802  -0.732059  -0.209263  -0.641198  -2.03873  -0.291855  -0.993974  10.6218  |-0.349672  -0.166591  -0.129998  -0.681908  -0.365376  -0.202814  -2.11478  -1.10861  -0.367435  10.0936  |-0.171926  -0.141101  -0.206674  -0.323138  -0.366646  -0.391536  -0.815835  -1.37733  -0.915282  -1.81178  10.2141  |-0.11966  -0.157589  -0.40504  -0.183884  -0.326919  -0.77403  -0.343021  -0.787597  -2.2343  -0.634207  -1.85724  10.0287  |-1.07943  -1.79669  -1.05667  -0.376221  -0.447886  -0.420458  -0.167009  -0.152471  -0.189377  -0.119832  -0.0951625  -0.125801  10.6747  |-0.461664  -0.456593  -0.472771  -0.174144  -0.149051  -0.190063  -0.0923831  -0.0661001  -0.0997896  -0.0776527  -0.0584196  -0.0789934  -1.61332  9.3045  |-0.317387  -0.272881  -0.331389  -0.129337  -0.0987386  -0.140783  -0.0743838  -0.0493921  -0.0797027  -0.0665337  -0.0497436  -0.0674804  -0.805837  -2.29505  9.60977  |-0.252521  -0.19626  -0.267531  -0.110921  -0.0776489  -0.120712  -0.0683504  -0.0431179  -0.0729938  -0.0643355  -0.0480896  -0.0652382  -0.512633  -1.00768  -2.24164  9.52204  |-0.243637  -0.17605  -0.260841  -0.114292  -0.0750726  -0.124481  -0.0745194  -0.0454256  -0.0794967  -0.0730647  -0.0547538  -0.0741499  -0.42049  -0.67776  -1.11371  -2.52526  8.82658  ]

New Linecode.doublecircuit nphases=9  Units=km
~ Rmatrix=[0.190558  |0.0580748  0.190558  |0.0580746  0.0580748  0.190558  |0.0580187  0.0580186  0.0580184  0.190446  |0.0580045  0.0580046  0.0580045  0.0579484  0.190418  |0.0580184  0.0580186  0.0580187  0.0579623  0.0579484  0.190446  |0.0581311  0.0581312  0.0581311  0.0580748  0.0580608  0.0580748  0.190671  |0.0581875  0.0581876  0.0581875  0.0581311  0.0581171  0.0581311  0.0582441  1.06361  |0.0582157  0.0582158  0.0582157  0.0581593  0.0581453  0.0581593  0.0582723  0.0583289  1.06366  ]
~ Xmatrix=[0.868584  |0.515614  0.868584  |0.446527  0.485043  0.868584  |0.515672  0.489541  0.44099  0.8687  |0.472731  0.497383  0.472731  0.497441  0.868729  |0.44099  0.471238  0.515672  0.446643  0.497441  0.8687  |0.483789  0.514717  0.476439  0.452583  0.454412  0.449199  0.868468  |0.452467  0.463025  0.449083  0.427554  0.426666  0.425771  0.51544  1.00385  |0.439146  0.446247  0.436736  0.417206  0.415857  0.415842  0.48484  0.567615  1.00379  ]
~ Cmatrix=[10.3648  |-1.91294  10.9014  |-0.45146  -1.19974  10.0963  |-2.30954  -1.22651  -0.466387  10.0121  |-0.925439  -1.45965  -1.03815  -1.86178  10.1744  |-0.43898  -0.888355  -2.45438  -0.686162  -1.91257  9.93559  |-1.18595  -1.89586  -1.15601  -0.548529  -0.533754  -0.562879  10.5751  |-0.564987  -0.542125  -0.577401  -0.292882  -0.239279  -0.299433  -1.75171  9.07652  |-0.481734  -0.403565  -0.50188  -0.274644  -0.215043  -0.28137  -1.0625  -2.74204  8.7124  ]

New Linecode.singlecircuit nphases=5  Units=km
~ Rmatrix=[0.190558  |0.0580607  0.19053  |0.0580746  0.0580607  0.190558  |0.0581311  0.0581171  0.0581311  0.245238  |0.0581875  0.0581735  0.0581875  0.0582441  1.06361  ]
~ Xmatrix=[0.868584  |0.497325  0.868613  |0.446527  0.497325  0.868584  |0.483789  0.498506  0.476439  0.881721  |0.452467  0.454296  0.449083  0.51544  1.00385  ]
~ Cmatrix=[9.34393  |-2.21046  9.9367  |-0.997143  -2.24979  9.27241  |-1.64312  -1.8341  -1.48396  9.85518  |-0.959552  -0.789194  -0.931526  -2.14449  8.1337  ]

New Linecode.1phline nphases=3  Units=km
~ Rmatrix=[0.419052  |0.0581311  0.74067  |0.0581875  0.0582441  1.06361  ]
~ Xmatrix=[0.967933  |0.483789  1.01318  |0.452467  0.51544  1.00385  ]
~ Cmatrix=[7.98727  |-2.01702  8.22913  |-1.29627  -2.31971  7.85088  ]
